data_image0
_chemical_formula_structural       Cu
_chemical_formula_sum              "Cu1"
_cell_length_a       2.5296252999953506
_cell_length_b       2.5296258526342896
_cell_length_c       2.52962495
_cell_angle_alpha    60.00001167291316
_cell_angle_beta     60.0000044460954
_cell_angle_gamma    60.000002640914175

_space_group_name_H-M_alt    "P 1"
_space_group_IT_number       1

loop_
  _space_group_symop_operation_xyz
  'x, y, z'

loop_
  _atom_site_type_symbol
  _atom_site_label
  _atom_site_symmetry_multiplicity
  _atom_site_fract_x
  _atom_site_fract_y
  _atom_site_fract_z
  _atom_site_occupancy
  Cu  Cu1       1.0  0.0  0.0  0.0  1.0000
