data_image0
_chemical_formula_structural       C4
_chemical_formula_sum              "C4"
_cell_length_a       2.467291
_cell_length_b       2.4672915232061654
_cell_length_c       7.803073
_cell_angle_alpha    90.0
_cell_angle_beta     90.0
_cell_angle_gamma    120.0000063925213

_space_group_name_H-M_alt    "P 1"
_space_group_IT_number       1

loop_
  _space_group_symop_operation_xyz
  'x, y, z'

loop_
  _atom_site_type_symbol
  _atom_site_label
  _atom_site_symmetry_multiplicity
  _atom_site_fract_x
  _atom_site_fract_y
  _atom_site_fract_z
  _atom_site_occupancy
  C   C1        1.0  0.0  0.0  0.25  1.0000
  C   C2        1.0  0.0  0.0  0.7499999999999999  1.0000
  C   C3        1.0  0.333333  0.666667  0.25  1.0000
  C   C4        1.0  0.666667  0.333333  0.7499999999999999  1.0000
